Version 4.1
SHEET 1 880 680
FLAG 16 160 0
FLAG 16 80 6V
SYMBOL voltage 16 64 R0
SYMATTR InstName Battery_Pack
SYMATTR Value 6V
SYMBOL OpAmps\\opamp2 80 432 R0
SYMATTR InstName U1
